@<TRIPOS>MOLECULE
/Users/ianian/Desktop/biomatai/BioMatAI/input/metal/Mg/BaMg.pdb
 704 672 0 0 0
SMALL
GASTEIGER

@<TRIPOS>ATOM
      1 BA          1.0444    0.0667   -0.0598 Ba      1  UNL1        0.0000
      2 BA         -6.0756    0.0667   -0.0598 Ba      1  UNL1        0.0000
      3 BA        -13.1956    0.0667   -0.0598 Ba      1  UNL1        0.0000
      4 BA        -20.3156    0.0667   -0.0598 Ba      1  UNL1        0.0000
      5 BA          0.9538   -0.0755    0.0465 Ba      2  UNL2        0.0000
      6 BA         -6.1662   -0.0755    0.0465 Ba      2  UNL2        0.0000
      7 BA          0.9528   -0.0686    0.0554 Ba      3  UNL3        0.0000
      8 BA        -27.4356    0.0667   -0.0598 Ba      1  UNL1        0.0000
      9 BA        -34.5556    0.0667   -0.0598 Ba      1  UNL1        0.0000
     10 BA        -41.6756    0.0667   -0.0598 Ba      1  UNL1        0.0000
     11 BA        -48.7956    0.0667   -0.0598 Ba      1  UNL1        0.0000
     12 BA        -55.9156    0.0667   -0.0598 Ba      1  UNL1        0.0000
     13 BA        -63.0356    0.0667   -0.0598 Ba      1  UNL1        0.0000
     14 BA        -13.2862   -0.0755    0.0465 Ba      2  UNL2        0.0000
     15 BA        -20.4062   -0.0755    0.0465 Ba      2  UNL2        0.0000
     16 BA        -27.5262   -0.0755    0.0465 Ba      2  UNL2        0.0000
     17 BA        -34.6462   -0.0755    0.0465 Ba      2  UNL2        0.0000
     18 BA        -41.7662   -0.0755    0.0465 Ba      2  UNL2        0.0000
     19 BA        -48.8862   -0.0755    0.0465 Ba      2  UNL2        0.0000
     20 BA        -56.0062   -0.0755    0.0465 Ba      2  UNL2        0.0000
     21 BA         -6.1672   -0.0686    0.0554 Ba      3  UNL3        0.0000
     22 BA        -13.2872   -0.0686    0.0554 Ba      3  UNL3        0.0000
     23 BA        -20.4072   -0.0686    0.0554 Ba      3  UNL3        0.0000
     24 BA        -27.5272   -0.0686    0.0554 Ba      3  UNL3        0.0000
     25 BA        -34.6472   -0.0686    0.0554 Ba      3  UNL3        0.0000
     26 BA        -41.7672   -0.0686    0.0554 Ba      3  UNL3        0.0000
     27 BA        -48.8872   -0.0686    0.0554 Ba      3  UNL3        0.0000
     28 BA          0.9656    0.0436   -0.0832 Ba      4  UNL4        0.0000
     29 BA         -6.1544    0.0436   -0.0832 Ba      4  UNL4        0.0000
     30 BA        -13.2744    0.0436   -0.0832 Ba      4  UNL4        0.0000
     31 BA        -20.3944    0.0436   -0.0832 Ba      4  UNL4        0.0000
     32 BA        -27.5144    0.0436   -0.0832 Ba      4  UNL4        0.0000
     33 BA        -34.6344    0.0436   -0.0832 Ba      4  UNL4        0.0000
     34 BA          0.9839    0.0869   -0.0468 Ba      5  UNL5        0.0000
     35 BA         -6.1361    0.0869   -0.0468 Ba      5  UNL5        0.0000
     36 BA        -13.2561    0.0869   -0.0468 Ba      5  UNL5        0.0000
     37 BA        -20.3761    0.0869   -0.0468 Ba      5  UNL5        0.0000
     38 BA        -27.4961    0.0869   -0.0468 Ba      5  UNL5        0.0000
     39 BA          1.0635    0.0763   -0.0118 Ba      6  UNL6        0.0000
     40 BA         -6.0565    0.0763   -0.0118 Ba      6  UNL6        0.0000
     41 BA        -13.1765    0.0763   -0.0118 Ba      6  UNL6        0.0000
     42 BA          1.0654   -0.0279   -0.0703 Ba      7  UNL7        0.0000
     43 BA         -6.0546   -0.0279   -0.0703 Ba      7  UNL7        0.0000
     44 BA          0.9882    0.0305   -0.0945 Ba      8  UNL8        0.0000
     45 BA        -63.1262   -0.0755    0.0465 Ba      2  UNL2        0.0000
     46 BA        -56.0072   -0.0686    0.0554 Ba      3  UNL3        0.0000
     47 BA        -63.1272   -0.0686    0.0554 Ba      3  UNL3        0.0000
     48 BA        -41.7544    0.0436   -0.0832 Ba      4  UNL4        0.0000
     49 BA        -48.8744    0.0436   -0.0832 Ba      4  UNL4        0.0000
     50 BA        -55.9944    0.0436   -0.0832 Ba      4  UNL4        0.0000
     51 BA        -63.1144    0.0436   -0.0832 Ba      4  UNL4        0.0000
     52 BA        -34.6161    0.0869   -0.0468 Ba      5  UNL5        0.0000
     53 BA        -41.7361    0.0869   -0.0468 Ba      5  UNL5        0.0000
     54 BA        -48.8561    0.0869   -0.0468 Ba      5  UNL5        0.0000
     55 BA        -55.9761    0.0869   -0.0468 Ba      5  UNL5        0.0000
     56 BA        -63.0961    0.0869   -0.0468 Ba      5  UNL5        0.0000
     57 BA        -20.2965    0.0763   -0.0118 Ba      6  UNL6        0.0000
     58 BA        -27.4165    0.0763   -0.0118 Ba      6  UNL6        0.0000
     59 BA        -34.5365    0.0763   -0.0118 Ba      6  UNL6        0.0000
     60 BA        -41.6565    0.0763   -0.0118 Ba      6  UNL6        0.0000
     61 BA        -48.7765    0.0763   -0.0118 Ba      6  UNL6        0.0000
     62 BA        -55.8965    0.0763   -0.0118 Ba      6  UNL6        0.0000
     63 BA        -63.0165    0.0763   -0.0118 Ba      6  UNL6        0.0000
     64 BA        -13.1746   -0.0279   -0.0703 Ba      7  UNL7        0.0000
     65 BA        -20.2946   -0.0279   -0.0703 Ba      7  UNL7        0.0000
     66 BA        -27.4146   -0.0279   -0.0703 Ba      7  UNL7        0.0000
     67 BA        -34.5346   -0.0279   -0.0703 Ba      7  UNL7        0.0000
     68 BA        -41.6546   -0.0279   -0.0703 Ba      7  UNL7        0.0000
     69 BA        -48.7746   -0.0279   -0.0703 Ba      7  UNL7        0.0000
     70 BA        -55.8946   -0.0279   -0.0703 Ba      7  UNL7        0.0000
     71 BA         -6.1318    0.0305   -0.0945 Ba      8  UNL8        0.0000
     72 BA        -13.2518    0.0305   -0.0945 Ba      8  UNL8        0.0000
     73 BA        -20.3718    0.0305   -0.0945 Ba      8  UNL8        0.0000
     74 BA        -27.4918    0.0305   -0.0945 Ba      8  UNL8        0.0000
     75 BA        -34.6118    0.0305   -0.0945 Ba      8  UNL8        0.0000
     76 BA        -41.7318    0.0305   -0.0945 Ba      8  UNL8        0.0000
     77 BA        -63.0146   -0.0279   -0.0703 Ba      7  UNL7        0.0000
     78 BA        -48.8518    0.0305   -0.0945 Ba      8  UNL8        0.0000
     79 BA        -55.9718    0.0305   -0.0945 Ba      8  UNL8        0.0000
     80 BA        -63.0918    0.0305   -0.0945 Ba      8  UNL8        0.0000
     81 BA          1.0094   -0.0956   -0.0277 Ba      9  UNL9        0.0000
     82 BA         -6.1106   -0.0956   -0.0277 Ba      9  UNL9        0.0000
     83 BA        -13.2306   -0.0956   -0.0277 Ba      9  UNL9        0.0000
     84 BA        -20.3506   -0.0956   -0.0277 Ba      9  UNL9        0.0000
     85 BA          0.9117   -0.0010    0.0468 Ba     10  UNL10       0.0000
     86 BA         -6.2083   -0.0010    0.0468 Ba     10  UNL10       0.0000
     87 BA          1.0577   -0.0808    0.0120 Ba     11  UNL11       0.0000
     88 BA        -27.4706   -0.0956   -0.0277 Ba      9  UNL9        0.0000
     89 BA        -34.5906   -0.0956   -0.0277 Ba      9  UNL9        0.0000
     90 BA        -41.7106   -0.0956   -0.0277 Ba      9  UNL9        0.0000
     91 BA        -48.8306   -0.0956   -0.0277 Ba      9  UNL9        0.0000
     92 BA        -55.9506   -0.0956   -0.0277 Ba      9  UNL9        0.0000
     93 BA        -63.0706   -0.0956   -0.0277 Ba      9  UNL9        0.0000
     94 BA        -13.3283   -0.0010    0.0468 Ba     10  UNL10       0.0000
     95 BA        -20.4483   -0.0010    0.0468 Ba     10  UNL10       0.0000
     96 BA        -27.5683   -0.0010    0.0468 Ba     10  UNL10       0.0000
     97 BA        -34.6883   -0.0010    0.0468 Ba     10  UNL10       0.0000
     98 BA        -41.8083   -0.0010    0.0468 Ba     10  UNL10       0.0000
     99 BA        -48.9283   -0.0010    0.0468 Ba     10  UNL10       0.0000
    100 BA        -56.0483   -0.0010    0.0468 Ba     10  UNL10       0.0000
    101 BA         -6.0623   -0.0808    0.0120 Ba     11  UNL11       0.0000
    102 BA        -13.1823   -0.0808    0.0120 Ba     11  UNL11       0.0000
    103 BA        -20.3023   -0.0808    0.0120 Ba     11  UNL11       0.0000
    104 BA        -27.4223   -0.0808    0.0120 Ba     11  UNL11       0.0000
    105 BA        -34.5423   -0.0808    0.0120 Ba     11  UNL11       0.0000
    106 BA        -41.6623   -0.0808    0.0120 Ba     11  UNL11       0.0000
    107 BA        -48.7823   -0.0808    0.0120 Ba     11  UNL11       0.0000
    108 BA          1.0803   -0.0256   -0.0539 Ba     12  UNL12       0.0000
    109 BA         -6.0397   -0.0256   -0.0539 Ba     12  UNL12       0.0000
    110 BA        -13.1597   -0.0256   -0.0539 Ba     12  UNL12       0.0000
    111 BA        -20.2797   -0.0256   -0.0539 Ba     12  UNL12       0.0000
    112 BA        -27.3997   -0.0256   -0.0539 Ba     12  UNL12       0.0000
    113 BA        -34.5197   -0.0256   -0.0539 Ba     12  UNL12       0.0000
    114 BA          1.0799   -0.0404    0.0445 Ba     13  UNL13       0.0000
    115 BA         -6.0401   -0.0404    0.0445 Ba     13  UNL13       0.0000
    116 BA        -13.1601   -0.0404    0.0445 Ba     13  UNL13       0.0000
    117 BA        -20.2801   -0.0404    0.0445 Ba     13  UNL13       0.0000
    118 BA        -27.4001   -0.0404    0.0445 Ba     13  UNL13       0.0000
    119 BA          0.9496    0.0563    0.0655 Ba     14  UNL14       0.0000
    120 BA         -6.1704    0.0563    0.0655 Ba     14  UNL14       0.0000
    121 BA        -13.2904    0.0563    0.0655 Ba     14  UNL14       0.0000
    122 BA          0.9440    0.0501    0.0660 Ba     15  UNL15       0.0000
    123 BA         -6.1760    0.0501    0.0660 Ba     15  UNL15       0.0000
    124 BA          0.9809   -0.0370    0.0909 Ba     16  UNL16       0.0000
    125 BA        -63.1683   -0.0010    0.0468 Ba     10  UNL10       0.0000
    126 BA        -55.9023   -0.0808    0.0120 Ba     11  UNL11       0.0000
    127 BA        -63.0223   -0.0808    0.0120 Ba     11  UNL11       0.0000
    128 BA        -41.6397   -0.0256   -0.0539 Ba     12  UNL12       0.0000
    129 BA        -48.7597   -0.0256   -0.0539 Ba     12  UNL12       0.0000
    130 BA        -55.8797   -0.0256   -0.0539 Ba     12  UNL12       0.0000
    131 BA        -62.9997   -0.0256   -0.0539 Ba     12  UNL12       0.0000
    132 BA        -34.5201   -0.0404    0.0445 Ba     13  UNL13       0.0000
    133 BA        -41.6401   -0.0404    0.0445 Ba     13  UNL13       0.0000
    134 BA        -48.7601   -0.0404    0.0445 Ba     13  UNL13       0.0000
    135 BA        -55.8801   -0.0404    0.0445 Ba     13  UNL13       0.0000
    136 BA        -63.0001   -0.0404    0.0445 Ba     13  UNL13       0.0000
    137 BA        -20.4104    0.0563    0.0655 Ba     14  UNL14       0.0000
    138 BA        -27.5304    0.0563    0.0655 Ba     14  UNL14       0.0000
    139 BA        -34.6504    0.0563    0.0655 Ba     14  UNL14       0.0000
    140 BA        -41.7704    0.0563    0.0655 Ba     14  UNL14       0.0000
    141 BA        -48.8904    0.0563    0.0655 Ba     14  UNL14       0.0000
    142 BA        -56.0104    0.0563    0.0655 Ba     14  UNL14       0.0000
    143 BA        -63.1304    0.0563    0.0655 Ba     14  UNL14       0.0000
    144 BA        -13.2960    0.0501    0.0660 Ba     15  UNL15       0.0000
    145 BA        -20.4160    0.0501    0.0660 Ba     15  UNL15       0.0000
    146 BA        -27.5360    0.0501    0.0660 Ba     15  UNL15       0.0000
    147 BA        -34.6560    0.0501    0.0660 Ba     15  UNL15       0.0000
    148 BA        -41.7760    0.0501    0.0660 Ba     15  UNL15       0.0000
    149 BA        -48.8960    0.0501    0.0660 Ba     15  UNL15       0.0000
    150 BA        -56.0160    0.0501    0.0660 Ba     15  UNL15       0.0000
    151 BA         -6.1391   -0.0370    0.0909 Ba     16  UNL16       0.0000
    152 BA        -13.2591   -0.0370    0.0909 Ba     16  UNL16       0.0000
    153 BA        -20.3791   -0.0370    0.0909 Ba     16  UNL16       0.0000
    154 BA        -27.4991   -0.0370    0.0909 Ba     16  UNL16       0.0000
    155 BA        -34.6191   -0.0370    0.0909 Ba     16  UNL16       0.0000
    156 BA        -41.7391   -0.0370    0.0909 Ba     16  UNL16       0.0000
    157 BA        -63.1360    0.0501    0.0660 Ba     15  UNL15       0.0000
    158 BA        -48.8591   -0.0370    0.0909 Ba     16  UNL16       0.0000
    159 BA        -55.9791   -0.0370    0.0909 Ba     16  UNL16       0.0000
    160 BA        -63.0991   -0.0370    0.0909 Ba     16  UNL16       0.0000
    161 BA          1.0558   -0.0367    0.0744 Ba     17  UNL17       0.0000
    162 BA         -6.0642   -0.0367    0.0744 Ba     17  UNL17       0.0000
    163 BA        -13.1842   -0.0367    0.0744 Ba     17  UNL17       0.0000
    164 BA        -20.3042   -0.0367    0.0744 Ba     17  UNL17       0.0000
    165 BA        -27.4242   -0.0367    0.0744 Ba     17  UNL17       0.0000
    166 BA        -34.5442   -0.0367    0.0744 Ba     17  UNL17       0.0000
    167 BA        -41.6642   -0.0367    0.0744 Ba     17  UNL17       0.0000
    168 BA          1.0694   -0.0477   -0.0540 Ba     18  UNL18       0.0000
    169 BA         -6.0506   -0.0477   -0.0540 Ba     18  UNL18       0.0000
    170 BA        -13.1706   -0.0477   -0.0540 Ba     18  UNL18       0.0000
    171 BA        -20.2906   -0.0477   -0.0540 Ba     18  UNL18       0.0000
    172 BA        -27.4106   -0.0477   -0.0540 Ba     18  UNL18       0.0000
    173 BA        -34.5306   -0.0477   -0.0540 Ba     18  UNL18       0.0000
    174 BA          1.0662   -0.0407   -0.0630 Ba     19  UNL19       0.0000
    175 BA         -6.0538   -0.0407   -0.0630 Ba     19  UNL19       0.0000
    176 BA        -13.1738   -0.0407   -0.0630 Ba     19  UNL19       0.0000
    177 BA        -20.2938   -0.0407   -0.0630 Ba     19  UNL19       0.0000
    178 BA          1.0197    0.0649   -0.0735 Ba     20  UNL20       0.0000
    179 BA         -6.1003    0.0649   -0.0735 Ba     20  UNL20       0.0000
    180 BA        -13.2203    0.0649   -0.0735 Ba     20  UNL20       0.0000
    181 BA          1.0968   -0.0034    0.0250 Ba     21  UNL21       0.0000
    182 BA        -48.7842   -0.0367    0.0744 Ba     17  UNL17       0.0000
    183 BA        -55.9042   -0.0367    0.0744 Ba     17  UNL17       0.0000
    184 BA        -63.0242   -0.0367    0.0744 Ba     17  UNL17       0.0000
    185 BA        -41.6506   -0.0477   -0.0540 Ba     18  UNL18       0.0000
    186 BA        -48.7706   -0.0477   -0.0540 Ba     18  UNL18       0.0000
    187 BA        -55.8906   -0.0477   -0.0540 Ba     18  UNL18       0.0000
    188 BA        -63.0106   -0.0477   -0.0540 Ba     18  UNL18       0.0000
    189 BA        -27.4138   -0.0407   -0.0630 Ba     19  UNL19       0.0000
    190 BA        -34.5338   -0.0407   -0.0630 Ba     19  UNL19       0.0000
    191 BA        -41.6538   -0.0407   -0.0630 Ba     19  UNL19       0.0000
    192 BA        -48.7738   -0.0407   -0.0630 Ba     19  UNL19       0.0000
    193 BA        -55.8938   -0.0407   -0.0630 Ba     19  UNL19       0.0000
    194 BA        -63.0138   -0.0407   -0.0630 Ba     19  UNL19       0.0000
    195 BA        -20.3403    0.0649   -0.0735 Ba     20  UNL20       0.0000
    196 BA        -27.4603    0.0649   -0.0735 Ba     20  UNL20       0.0000
    197 BA        -34.5803    0.0649   -0.0735 Ba     20  UNL20       0.0000
    198 BA        -41.7003    0.0649   -0.0735 Ba     20  UNL20       0.0000
    199 BA        -48.8203    0.0649   -0.0735 Ba     20  UNL20       0.0000
    200 BA        -55.9403    0.0649   -0.0735 Ba     20  UNL20       0.0000
    201 BA        -63.0603    0.0649   -0.0735 Ba     20  UNL20       0.0000
    202 BA         -6.0232   -0.0034    0.0250 Ba     21  UNL21       0.0000
    203 BA        -13.1432   -0.0034    0.0250 Ba     21  UNL21       0.0000
    204 BA        -20.2632   -0.0034    0.0250 Ba     21  UNL21       0.0000
    205 BA        -27.3832   -0.0034    0.0250 Ba     21  UNL21       0.0000
    206 BA        -34.5032   -0.0034    0.0250 Ba     21  UNL21       0.0000
    207 BA        -41.6232   -0.0034    0.0250 Ba     21  UNL21       0.0000
    208 BA        -48.7432   -0.0034    0.0250 Ba     21  UNL21       0.0000
    209 BA        -55.8632   -0.0034    0.0250 Ba     21  UNL21       0.0000
    210 BA        -62.9832   -0.0034    0.0250 Ba     21  UNL21       0.0000
    211 BA          1.0390    0.0712   -0.0584 Ba     22  UNL22       0.0000
    212 BA         -6.0810    0.0712   -0.0584 Ba     22  UNL22       0.0000
    213 BA        -13.2010    0.0712   -0.0584 Ba     22  UNL22       0.0000
    214 BA        -20.3210    0.0712   -0.0584 Ba     22  UNL22       0.0000
    215 BA        -27.4410    0.0712   -0.0584 Ba     22  UNL22       0.0000
    216 BA        -34.5610    0.0712   -0.0584 Ba     22  UNL22       0.0000
    217 BA        -41.6810    0.0712   -0.0584 Ba     22  UNL22       0.0000
    218 BA        -48.8010    0.0712   -0.0584 Ba     22  UNL22       0.0000
    219 BA        -55.9210    0.0712   -0.0584 Ba     22  UNL22       0.0000
    220 BA        -63.0410    0.0712   -0.0584 Ba     22  UNL22       0.0000
    221 BA          1.0682   -0.0723   -0.0104 Ba     23  UNL23       0.0000
    222 BA         -6.0518   -0.0723   -0.0104 Ba     23  UNL23       0.0000
    223 BA        -13.1718   -0.0723   -0.0104 Ba     23  UNL23       0.0000
    224 BA        -20.2918   -0.0723   -0.0104 Ba     23  UNL23       0.0000
    225 BA        -27.4118   -0.0723   -0.0104 Ba     23  UNL23       0.0000
    226 BA        -34.5318   -0.0723   -0.0104 Ba     23  UNL23       0.0000
    227 BA        -41.6518   -0.0723   -0.0104 Ba     23  UNL23       0.0000
    228 BA        -48.7718   -0.0723   -0.0104 Ba     23  UNL23       0.0000
    229 BA        -55.8918   -0.0723   -0.0104 Ba     23  UNL23       0.0000
    230 BA        -63.0118   -0.0723   -0.0104 Ba     23  UNL23       0.0000
    231 BA          1.0117   -0.0515    0.0849 Ba     24  UNL24       0.0000
    232 BA         -6.1083   -0.0515    0.0849 Ba     24  UNL24       0.0000
    233 BA        -13.2283   -0.0515    0.0849 Ba     24  UNL24       0.0000
    234 BA        -20.3483   -0.0515    0.0849 Ba     24  UNL24       0.0000
    235 BA        -27.4683   -0.0515    0.0849 Ba     24  UNL24       0.0000
    236 BA        -34.5883   -0.0515    0.0849 Ba     24  UNL24       0.0000
    237 BA        -41.7083   -0.0515    0.0849 Ba     24  UNL24       0.0000
    238 BA        -48.8283   -0.0515    0.0849 Ba     24  UNL24       0.0000
    239 BA        -55.9483   -0.0515    0.0849 Ba     24  UNL24       0.0000
    240 BA        -63.0683   -0.0515    0.0849 Ba     24  UNL24       0.0000
    241 BA          1.0640   -0.0465    0.0611 Ba     25  UNL25       0.0000
    242 BA         -6.0560   -0.0465    0.0611 Ba     25  UNL25       0.0000
    243 BA        -13.1760   -0.0465    0.0611 Ba     25  UNL25       0.0000
    244 BA        -20.2960   -0.0465    0.0611 Ba     25  UNL25       0.0000
    245 BA        -27.4160   -0.0465    0.0611 Ba     25  UNL25       0.0000
    246 BA        -34.5360   -0.0465    0.0611 Ba     25  UNL25       0.0000
    247 BA        -41.6560   -0.0465    0.0611 Ba     25  UNL25       0.0000
    248 BA          1.0779   -0.0354   -0.0518 Ba     26  UNL26       0.0000
    249 BA         -6.0421   -0.0354   -0.0518 Ba     26  UNL26       0.0000
    250 BA        -13.1621   -0.0354   -0.0518 Ba     26  UNL26       0.0000
    251 BA        -20.2821   -0.0354   -0.0518 Ba     26  UNL26       0.0000
    252 BA        -27.4021   -0.0354   -0.0518 Ba     26  UNL26       0.0000
    253 BA        -34.5221   -0.0354   -0.0518 Ba     26  UNL26       0.0000
    254 BA          1.0477   -0.0474   -0.0740 Ba     27  UNL27       0.0000
    255 BA         -6.0723   -0.0474   -0.0740 Ba     27  UNL27       0.0000
    256 BA        -13.1923   -0.0474   -0.0740 Ba     27  UNL27       0.0000
    257 BA        -20.3123   -0.0474   -0.0740 Ba     27  UNL27       0.0000
    258 BA          0.9869    0.0243   -0.0961 Ba     28  UNL28       0.0000
    259 BA         -6.1331    0.0243   -0.0961 Ba     28  UNL28       0.0000
    260 BA        -13.2531    0.0243   -0.0961 Ba     28  UNL28       0.0000
    261 BA          1.0293    0.0847    0.0443 Ba     28  UNL28       0.0000
    262 BA        -48.7760   -0.0465    0.0611 Ba     25  UNL25       0.0000
    263 BA        -55.8960   -0.0465    0.0611 Ba     25  UNL25       0.0000
    264 BA        -63.0160   -0.0465    0.0611 Ba     25  UNL25       0.0000
    265 BA        -41.6421   -0.0354   -0.0518 Ba     26  UNL26       0.0000
    266 BA        -48.7621   -0.0354   -0.0518 Ba     26  UNL26       0.0000
    267 BA        -55.8821   -0.0354   -0.0518 Ba     26  UNL26       0.0000
    268 BA        -63.0021   -0.0354   -0.0518 Ba     26  UNL26       0.0000
    269 BA        -27.4323   -0.0474   -0.0740 Ba     27  UNL27       0.0000
    270 BA        -34.5523   -0.0474   -0.0740 Ba     27  UNL27       0.0000
    271 BA        -41.6723   -0.0474   -0.0740 Ba     27  UNL27       0.0000
    272 BA        -48.7923   -0.0474   -0.0740 Ba     27  UNL27       0.0000
    273 BA        -55.9123   -0.0474   -0.0740 Ba     27  UNL27       0.0000
    274 BA        -63.0323   -0.0474   -0.0740 Ba     27  UNL27       0.0000
    275 BA        -20.3731    0.0243   -0.0961 Ba     28  UNL28       0.0000
    276 BA        -27.4931    0.0243   -0.0961 Ba     28  UNL28       0.0000
    277 BA        -34.6131    0.0243   -0.0961 Ba     28  UNL28       0.0000
    278 BA        -41.7331    0.0243   -0.0961 Ba     28  UNL28       0.0000
    279 BA        -48.8531    0.0243   -0.0961 Ba     28  UNL28       0.0000
    280 BA        -55.9731    0.0243   -0.0961 Ba     28  UNL28       0.0000
    281 BA        -63.0931    0.0243   -0.0961 Ba     28  UNL28       0.0000
    282 BA         -6.0907    0.0847    0.0443 Ba     28  UNL28       0.0000
    283 BA        -13.2107    0.0847    0.0443 Ba     28  UNL28       0.0000
    284 BA        -20.3307    0.0847    0.0443 Ba     28  UNL28       0.0000
    285 BA        -27.4507    0.0847    0.0443 Ba     28  UNL28       0.0000
    286 BA        -34.5707    0.0847    0.0443 Ba     28  UNL28       0.0000
    287 BA        -41.6907    0.0847    0.0443 Ba     28  UNL28       0.0000
    288 BA        -48.8107    0.0847    0.0443 Ba     28  UNL28       0.0000
    289 BA        -55.9307    0.0847    0.0443 Ba     28  UNL28       0.0000
    290 BA        -63.0507    0.0847    0.0443 Ba     28  UNL28       0.0000
    291 BA          0.9200   -0.0051    0.0598 Ba     28  UNL28       0.0000
    292 BA         -6.2000   -0.0051    0.0598 Ba     28  UNL28       0.0000
    293 BA        -13.3200   -0.0051    0.0598 Ba     28  UNL28       0.0000
    294 BA        -20.4400   -0.0051    0.0598 Ba     28  UNL28       0.0000
    295 BA        -27.5600   -0.0051    0.0598 Ba     28  UNL28       0.0000
    296 BA        -34.6800   -0.0051    0.0598 Ba     28  UNL28       0.0000
    297 BA        -41.8000   -0.0051    0.0598 Ba     28  UNL28       0.0000
    298 BA        -48.9200   -0.0051    0.0598 Ba     28  UNL28       0.0000
    299 BA        -56.0400   -0.0051    0.0598 Ba     28  UNL28       0.0000
    300 BA        -63.1600   -0.0051    0.0598 Ba     28  UNL28       0.0000
    301 BA          1.0729   -0.0680   -0.0079 Ba     28  UNL28       0.0000
    302 BA         -6.0471   -0.0680   -0.0079 Ba     28  UNL28       0.0000
    303 BA        -13.1671   -0.0680   -0.0079 Ba     28  UNL28       0.0000
    304 BA        -20.2871   -0.0680   -0.0079 Ba     28  UNL28       0.0000
    305 BA        -27.4071   -0.0680   -0.0079 Ba     28  UNL28       0.0000
    306 BA        -34.5271   -0.0680   -0.0079 Ba     28  UNL28       0.0000
    307 BA        -41.6471   -0.0680   -0.0079 Ba     28  UNL28       0.0000
    308 BA        -48.7671   -0.0680   -0.0079 Ba     28  UNL28       0.0000
    309 BA        -55.8871   -0.0680   -0.0079 Ba     28  UNL28       0.0000
    310 BA        -63.0071   -0.0680   -0.0079 Ba     28  UNL28       0.0000
    311 BA          0.9564   -0.0583   -0.0686 Ba     28  UNL28       0.0000
    312 BA         -6.1636   -0.0583   -0.0686 Ba     28  UNL28       0.0000
    313 BA        -13.2836   -0.0583   -0.0686 Ba     28  UNL28       0.0000
    314 BA        -20.4036   -0.0583   -0.0686 Ba     28  UNL28       0.0000
    315 BA        -27.5236   -0.0583   -0.0686 Ba     28  UNL28       0.0000
    316 BA        -34.6436   -0.0583   -0.0686 Ba     28  UNL28       0.0000
    317 BA        -41.7636   -0.0583   -0.0686 Ba     28  UNL28       0.0000
    318 BA        -48.8836   -0.0583   -0.0686 Ba     28  UNL28       0.0000
    319 BA        -56.0036   -0.0583   -0.0686 Ba     28  UNL28       0.0000
    320 BA        -63.1236   -0.0583   -0.0686 Ba     28  UNL28       0.0000
    321 MG         -2.5506   -0.0956   -0.0277 Mg      9  UNL9        0.0000
    322 MG         -9.6706   -0.0956   -0.0277 Mg      9  UNL9        0.0000
    323 MG        -16.7906   -0.0956   -0.0277 Mg      9  UNL9        0.0000
    324 MG        -23.9106   -0.0956   -0.0277 Mg      9  UNL9        0.0000
    325 MG         -2.6483   -0.0010    0.0468 Mg     10  UNL10       0.0000
    326 MG         -9.7683   -0.0010    0.0468 Mg     10  UNL10       0.0000
    327 MG         -2.5023   -0.0808    0.0120 Mg     11  UNL11       0.0000
    328 MG        -31.0306   -0.0956   -0.0277 Mg      9  UNL9        0.0000
    329 MG        -38.1506   -0.0956   -0.0277 Mg      9  UNL9        0.0000
    330 MG        -45.2706   -0.0956   -0.0277 Mg      9  UNL9        0.0000
    331 MG        -52.3906   -0.0956   -0.0277 Mg      9  UNL9        0.0000
    332 MG        -59.5106   -0.0956   -0.0277 Mg      9  UNL9        0.0000
    333 MG        -66.6306   -0.0956   -0.0277 Mg      9  UNL9        0.0000
    334 MG        -16.8883   -0.0010    0.0468 Mg     10  UNL10       0.0000
    335 MG        -24.0083   -0.0010    0.0468 Mg     10  UNL10       0.0000
    336 MG        -31.1283   -0.0010    0.0468 Mg     10  UNL10       0.0000
    337 MG        -38.2483   -0.0010    0.0468 Mg     10  UNL10       0.0000
    338 MG        -45.3683   -0.0010    0.0468 Mg     10  UNL10       0.0000
    339 MG        -52.4883   -0.0010    0.0468 Mg     10  UNL10       0.0000
    340 MG        -59.6083   -0.0010    0.0468 Mg     10  UNL10       0.0000
    341 MG         -9.6223   -0.0808    0.0120 Mg     11  UNL11       0.0000
    342 MG        -16.7423   -0.0808    0.0120 Mg     11  UNL11       0.0000
    343 MG        -23.8623   -0.0808    0.0120 Mg     11  UNL11       0.0000
    344 MG        -30.9823   -0.0808    0.0120 Mg     11  UNL11       0.0000
    345 MG        -38.1023   -0.0808    0.0120 Mg     11  UNL11       0.0000
    346 MG        -45.2223   -0.0808    0.0120 Mg     11  UNL11       0.0000
    347 MG        -52.3423   -0.0808    0.0120 Mg     11  UNL11       0.0000
    348 MG         -2.4797   -0.0256   -0.0539 Mg     12  UNL12       0.0000
    349 MG         -9.5997   -0.0256   -0.0539 Mg     12  UNL12       0.0000
    350 MG        -16.7197   -0.0256   -0.0539 Mg     12  UNL12       0.0000
    351 MG        -23.8397   -0.0256   -0.0539 Mg     12  UNL12       0.0000
    352 MG        -30.9597   -0.0256   -0.0539 Mg     12  UNL12       0.0000
    353 MG        -38.0797   -0.0256   -0.0539 Mg     12  UNL12       0.0000
    354 MG         -2.4801   -0.0404    0.0445 Mg     13  UNL13       0.0000
    355 MG         -9.6001   -0.0404    0.0445 Mg     13  UNL13       0.0000
    356 MG        -16.7201   -0.0404    0.0445 Mg     13  UNL13       0.0000
    357 MG        -23.8401   -0.0404    0.0445 Mg     13  UNL13       0.0000
    358 MG        -30.9601   -0.0404    0.0445 Mg     13  UNL13       0.0000
    359 MG         -2.6104    0.0563    0.0655 Mg     14  UNL14       0.0000
    360 MG         -9.7304    0.0563    0.0655 Mg     14  UNL14       0.0000
    361 MG        -16.8504    0.0563    0.0655 Mg     14  UNL14       0.0000
    362 MG         -2.6160    0.0501    0.0660 Mg     15  UNL15       0.0000
    363 MG         -9.7360    0.0501    0.0660 Mg     15  UNL15       0.0000
    364 MG         -2.5791   -0.0370    0.0909 Mg     16  UNL16       0.0000
    365 MG        -66.7283   -0.0010    0.0468 Mg     10  UNL10       0.0000
    366 MG        -59.4623   -0.0808    0.0120 Mg     11  UNL11       0.0000
    367 MG        -66.5823   -0.0808    0.0120 Mg     11  UNL11       0.0000
    368 MG        -45.1997   -0.0256   -0.0539 Mg     12  UNL12       0.0000
    369 MG        -52.3197   -0.0256   -0.0539 Mg     12  UNL12       0.0000
    370 MG        -59.4397   -0.0256   -0.0539 Mg     12  UNL12       0.0000
    371 MG        -66.5597   -0.0256   -0.0539 Mg     12  UNL12       0.0000
    372 MG        -38.0801   -0.0404    0.0445 Mg     13  UNL13       0.0000
    373 MG        -45.2001   -0.0404    0.0445 Mg     13  UNL13       0.0000
    374 MG        -52.3201   -0.0404    0.0445 Mg     13  UNL13       0.0000
    375 MG        -59.4401   -0.0404    0.0445 Mg     13  UNL13       0.0000
    376 MG        -66.5601   -0.0404    0.0445 Mg     13  UNL13       0.0000
    377 MG        -23.9704    0.0563    0.0655 Mg     14  UNL14       0.0000
    378 MG        -31.0904    0.0563    0.0655 Mg     14  UNL14       0.0000
    379 MG        -38.2104    0.0563    0.0655 Mg     14  UNL14       0.0000
    380 MG        -45.3304    0.0563    0.0655 Mg     14  UNL14       0.0000
    381 MG        -52.4504    0.0563    0.0655 Mg     14  UNL14       0.0000
    382 MG        -59.5704    0.0563    0.0655 Mg     14  UNL14       0.0000
    383 MG        -66.6904    0.0563    0.0655 Mg     14  UNL14       0.0000
    384 MG        -16.8560    0.0501    0.0660 Mg     15  UNL15       0.0000
    385 MG        -23.9760    0.0501    0.0660 Mg     15  UNL15       0.0000
    386 MG        -31.0960    0.0501    0.0660 Mg     15  UNL15       0.0000
    387 MG        -38.2160    0.0501    0.0660 Mg     15  UNL15       0.0000
    388 MG        -45.3360    0.0501    0.0660 Mg     15  UNL15       0.0000
    389 MG        -52.4560    0.0501    0.0660 Mg     15  UNL15       0.0000
    390 MG        -59.5760    0.0501    0.0660 Mg     15  UNL15       0.0000
    391 MG         -9.6991   -0.0370    0.0909 Mg     16  UNL16       0.0000
    392 MG        -16.8191   -0.0370    0.0909 Mg     16  UNL16       0.0000
    393 MG        -23.9391   -0.0370    0.0909 Mg     16  UNL16       0.0000
    394 MG        -31.0591   -0.0370    0.0909 Mg     16  UNL16       0.0000
    395 MG        -38.1791   -0.0370    0.0909 Mg     16  UNL16       0.0000
    396 MG        -45.2991   -0.0370    0.0909 Mg     16  UNL16       0.0000
    397 MG        -66.6960    0.0501    0.0660 Mg     15  UNL15       0.0000
    398 MG        -52.4191   -0.0370    0.0909 Mg     16  UNL16       0.0000
    399 MG        -59.5391   -0.0370    0.0909 Mg     16  UNL16       0.0000
    400 MG        -66.6591   -0.0370    0.0909 Mg     16  UNL16       0.0000
    401 MG         -2.5156    0.0667   -0.0598 Mg      1  UNL1        0.0000
    402 MG         -9.6356    0.0667   -0.0598 Mg      1  UNL1        0.0000
    403 MG        -16.7556    0.0667   -0.0598 Mg      1  UNL1        0.0000
    404 MG        -23.8756    0.0667   -0.0598 Mg      1  UNL1        0.0000
    405 MG         -2.6062   -0.0755    0.0465 Mg      2  UNL2        0.0000
    406 MG         -9.7262   -0.0755    0.0465 Mg      2  UNL2        0.0000
    407 MG         -2.6072   -0.0686    0.0554 Mg      3  UNL3        0.0000
    408 MG        -30.9956    0.0667   -0.0598 Mg      1  UNL1        0.0000
    409 MG        -38.1156    0.0667   -0.0598 Mg      1  UNL1        0.0000
    410 MG        -45.2356    0.0667   -0.0598 Mg      1  UNL1        0.0000
    411 MG        -52.3556    0.0667   -0.0598 Mg      1  UNL1        0.0000
    412 MG        -59.4756    0.0667   -0.0598 Mg      1  UNL1        0.0000
    413 MG        -66.5956    0.0667   -0.0598 Mg      1  UNL1        0.0000
    414 MG        -16.8462   -0.0755    0.0465 Mg      2  UNL2        0.0000
    415 MG        -23.9662   -0.0755    0.0465 Mg      2  UNL2        0.0000
    416 MG        -31.0862   -0.0755    0.0465 Mg      2  UNL2        0.0000
    417 MG        -38.2062   -0.0755    0.0465 Mg      2  UNL2        0.0000
    418 MG        -45.3262   -0.0755    0.0465 Mg      2  UNL2        0.0000
    419 MG        -52.4462   -0.0755    0.0465 Mg      2  UNL2        0.0000
    420 MG        -59.5662   -0.0755    0.0465 Mg      2  UNL2        0.0000
    421 MG         -9.7272   -0.0686    0.0554 Mg      3  UNL3        0.0000
    422 MG        -16.8472   -0.0686    0.0554 Mg      3  UNL3        0.0000
    423 MG        -23.9672   -0.0686    0.0554 Mg      3  UNL3        0.0000
    424 MG        -31.0872   -0.0686    0.0554 Mg      3  UNL3        0.0000
    425 MG        -38.2072   -0.0686    0.0554 Mg      3  UNL3        0.0000
    426 MG        -45.3272   -0.0686    0.0554 Mg      3  UNL3        0.0000
    427 MG        -52.4472   -0.0686    0.0554 Mg      3  UNL3        0.0000
    428 MG         -2.5944    0.0436   -0.0832 Mg      4  UNL4        0.0000
    429 MG         -9.7144    0.0436   -0.0832 Mg      4  UNL4        0.0000
    430 MG        -16.8344    0.0436   -0.0832 Mg      4  UNL4        0.0000
    431 MG        -23.9544    0.0436   -0.0832 Mg      4  UNL4        0.0000
    432 MG        -31.0744    0.0436   -0.0832 Mg      4  UNL4        0.0000
    433 MG        -38.1944    0.0436   -0.0832 Mg      4  UNL4        0.0000
    434 MG         -2.5761    0.0869   -0.0468 Mg      5  UNL5        0.0000
    435 MG         -9.6961    0.0869   -0.0468 Mg      5  UNL5        0.0000
    436 MG        -16.8161    0.0869   -0.0468 Mg      5  UNL5        0.0000
    437 MG        -23.9361    0.0869   -0.0468 Mg      5  UNL5        0.0000
    438 MG        -31.0561    0.0869   -0.0468 Mg      5  UNL5        0.0000
    439 MG         -2.4965    0.0763   -0.0118 Mg      6  UNL6        0.0000
    440 MG         -9.6165    0.0763   -0.0118 Mg      6  UNL6        0.0000
    441 MG        -16.7365    0.0763   -0.0118 Mg      6  UNL6        0.0000
    442 MG         -2.4946   -0.0279   -0.0703 Mg      7  UNL7        0.0000
    443 MG         -9.6146   -0.0279   -0.0703 Mg      7  UNL7        0.0000
    444 MG         -2.5718    0.0305   -0.0945 Mg      8  UNL8        0.0000
    445 MG        -66.6862   -0.0755    0.0465 Mg      2  UNL2        0.0000
    446 MG        -59.5672   -0.0686    0.0554 Mg      3  UNL3        0.0000
    447 MG        -45.3144    0.0436   -0.0832 Mg      4  UNL4        0.0000
    448 MG        -52.4344    0.0436   -0.0832 Mg      4  UNL4        0.0000
    449 MG        -59.5544    0.0436   -0.0832 Mg      4  UNL4        0.0000
    450 MG        -38.1761    0.0869   -0.0468 Mg      5  UNL5        0.0000
    451 MG        -45.2961    0.0869   -0.0468 Mg      5  UNL5        0.0000
    452 MG        -52.4161    0.0869   -0.0468 Mg      5  UNL5        0.0000
    453 MG        -59.5361    0.0869   -0.0468 Mg      5  UNL5        0.0000
    454 MG        -23.8565    0.0763   -0.0118 Mg      6  UNL6        0.0000
    455 MG        -30.9765    0.0763   -0.0118 Mg      6  UNL6        0.0000
    456 MG        -38.0965    0.0763   -0.0118 Mg      6  UNL6        0.0000
    457 MG        -45.2165    0.0763   -0.0118 Mg      6  UNL6        0.0000
    458 MG        -52.3365    0.0763   -0.0118 Mg      6  UNL6        0.0000
    459 MG        -59.4565    0.0763   -0.0118 Mg      6  UNL6        0.0000
    460 MG        -16.7346   -0.0279   -0.0703 Mg      7  UNL7        0.0000
    461 MG        -23.8546   -0.0279   -0.0703 Mg      7  UNL7        0.0000
    462 MG        -30.9746   -0.0279   -0.0703 Mg      7  UNL7        0.0000
    463 MG        -38.0946   -0.0279   -0.0703 Mg      7  UNL7        0.0000
    464 MG        -45.2146   -0.0279   -0.0703 Mg      7  UNL7        0.0000
    465 MG        -52.3346   -0.0279   -0.0703 Mg      7  UNL7        0.0000
    466 MG        -59.4546   -0.0279   -0.0703 Mg      7  UNL7        0.0000
    467 MG         -9.6918    0.0305   -0.0945 Mg      8  UNL8        0.0000
    468 MG        -16.8118    0.0305   -0.0945 Mg      8  UNL8        0.0000
    469 MG        -23.9318    0.0305   -0.0945 Mg      8  UNL8        0.0000
    470 MG        -31.0518    0.0305   -0.0945 Mg      8  UNL8        0.0000
    471 MG        -38.1718    0.0305   -0.0945 Mg      8  UNL8        0.0000
    472 MG        -45.2918    0.0305   -0.0945 Mg      8  UNL8        0.0000
    473 MG        -66.6872   -0.0686    0.0554 Mg      3  UNL3        0.0000
    474 MG        -66.6744    0.0436   -0.0832 Mg      4  UNL4        0.0000
    475 MG        -66.6561    0.0869   -0.0468 Mg      5  UNL5        0.0000
    476 MG        -66.5765    0.0763   -0.0118 Mg      6  UNL6        0.0000
    477 MG        -66.5746   -0.0279   -0.0703 Mg      7  UNL7        0.0000
    478 MG        -52.4118    0.0305   -0.0945 Mg      8  UNL8        0.0000
    479 MG        -59.5318    0.0305   -0.0945 Mg      8  UNL8        0.0000
    480 MG        -66.6518    0.0305   -0.0945 Mg      8  UNL8        0.0000
    481 MG         -2.4960   -0.0465    0.0611 Mg     25  UNL25       0.0000
    482 MG         -9.6160   -0.0465    0.0611 Mg     25  UNL25       0.0000
    483 MG        -16.7360   -0.0465    0.0611 Mg     25  UNL25       0.0000
    484 MG        -23.8560   -0.0465    0.0611 Mg     25  UNL25       0.0000
    485 MG        -30.9760   -0.0465    0.0611 Mg     25  UNL25       0.0000
    486 MG        -38.0960   -0.0465    0.0611 Mg     25  UNL25       0.0000
    487 MG        -45.2160   -0.0465    0.0611 Mg     25  UNL25       0.0000
    488 MG         -2.4821   -0.0354   -0.0518 Mg     26  UNL26       0.0000
    489 MG         -9.6021   -0.0354   -0.0518 Mg     26  UNL26       0.0000
    490 MG        -16.7221   -0.0354   -0.0518 Mg     26  UNL26       0.0000
    491 MG        -23.8421   -0.0354   -0.0518 Mg     26  UNL26       0.0000
    492 MG        -30.9621   -0.0354   -0.0518 Mg     26  UNL26       0.0000
    493 MG        -38.0821   -0.0354   -0.0518 Mg     26  UNL26       0.0000
    494 MG         -2.5123   -0.0474   -0.0740 Mg     27  UNL27       0.0000
    495 MG         -9.6323   -0.0474   -0.0740 Mg     27  UNL27       0.0000
    496 MG        -16.7523   -0.0474   -0.0740 Mg     27  UNL27       0.0000
    497 MG        -23.8723   -0.0474   -0.0740 Mg     27  UNL27       0.0000
    498 MG         -2.5731    0.0243   -0.0961 Mg     28  UNL28       0.0000
    499 MG         -9.6931    0.0243   -0.0961 Mg     28  UNL28       0.0000
    500 MG        -16.8131    0.0243   -0.0961 Mg     28  UNL28       0.0000
    501 MG         -2.5307    0.0847    0.0443 Mg     28  UNL28       0.0000
    502 MG        -52.3360   -0.0465    0.0611 Mg     25  UNL25       0.0000
    503 MG        -59.4560   -0.0465    0.0611 Mg     25  UNL25       0.0000
    504 MG        -66.5760   -0.0465    0.0611 Mg     25  UNL25       0.0000
    505 MG        -45.2021   -0.0354   -0.0518 Mg     26  UNL26       0.0000
    506 MG        -52.3221   -0.0354   -0.0518 Mg     26  UNL26       0.0000
    507 MG        -59.4421   -0.0354   -0.0518 Mg     26  UNL26       0.0000
    508 MG        -66.5621   -0.0354   -0.0518 Mg     26  UNL26       0.0000
    509 MG        -30.9923   -0.0474   -0.0740 Mg     27  UNL27       0.0000
    510 MG        -38.1123   -0.0474   -0.0740 Mg     27  UNL27       0.0000
    511 MG        -45.2323   -0.0474   -0.0740 Mg     27  UNL27       0.0000
    512 MG        -52.3523   -0.0474   -0.0740 Mg     27  UNL27       0.0000
    513 MG        -59.4723   -0.0474   -0.0740 Mg     27  UNL27       0.0000
    514 MG        -66.5923   -0.0474   -0.0740 Mg     27  UNL27       0.0000
    515 MG        -23.9331    0.0243   -0.0961 Mg     28  UNL28       0.0000
    516 MG        -31.0531    0.0243   -0.0961 Mg     28  UNL28       0.0000
    517 MG        -38.1731    0.0243   -0.0961 Mg     28  UNL28       0.0000
    518 MG        -45.2931    0.0243   -0.0961 Mg     28  UNL28       0.0000
    519 MG        -52.4131    0.0243   -0.0961 Mg     28  UNL28       0.0000
    520 MG        -59.5331    0.0243   -0.0961 Mg     28  UNL28       0.0000
    521 MG        -66.6531    0.0243   -0.0961 Mg     28  UNL28       0.0000
    522 MG         -9.6507    0.0847    0.0443 Mg     28  UNL28       0.0000
    523 MG        -16.7707    0.0847    0.0443 Mg     28  UNL28       0.0000
    524 MG        -23.8907    0.0847    0.0443 Mg     28  UNL28       0.0000
    525 MG        -31.0107    0.0847    0.0443 Mg     28  UNL28       0.0000
    526 MG        -38.1307    0.0847    0.0443 Mg     28  UNL28       0.0000
    527 MG        -45.2507    0.0847    0.0443 Mg     28  UNL28       0.0000
    528 MG        -52.3707    0.0847    0.0443 Mg     28  UNL28       0.0000
    529 MG        -59.4907    0.0847    0.0443 Mg     28  UNL28       0.0000
    530 MG        -66.6107    0.0847    0.0443 Mg     28  UNL28       0.0000
    531 MG         -2.6400   -0.0051    0.0598 Mg     28  UNL28       0.0000
    532 MG         -9.7600   -0.0051    0.0598 Mg     28  UNL28       0.0000
    533 MG        -16.8800   -0.0051    0.0598 Mg     28  UNL28       0.0000
    534 MG        -24.0000   -0.0051    0.0598 Mg     28  UNL28       0.0000
    535 MG        -31.1200   -0.0051    0.0598 Mg     28  UNL28       0.0000
    536 MG        -38.2400   -0.0051    0.0598 Mg     28  UNL28       0.0000
    537 MG        -45.3600   -0.0051    0.0598 Mg     28  UNL28       0.0000
    538 MG        -52.4800   -0.0051    0.0598 Mg     28  UNL28       0.0000
    539 MG        -59.6000   -0.0051    0.0598 Mg     28  UNL28       0.0000
    540 MG        -66.7200   -0.0051    0.0598 Mg     28  UNL28       0.0000
    541 MG         -2.4871   -0.0680   -0.0079 Mg     28  UNL28       0.0000
    542 MG         -9.6071   -0.0680   -0.0079 Mg     28  UNL28       0.0000
    543 MG        -16.7271   -0.0680   -0.0079 Mg     28  UNL28       0.0000
    544 MG        -23.8471   -0.0680   -0.0079 Mg     28  UNL28       0.0000
    545 MG        -30.9671   -0.0680   -0.0079 Mg     28  UNL28       0.0000
    546 MG        -38.0871   -0.0680   -0.0079 Mg     28  UNL28       0.0000
    547 MG        -45.2071   -0.0680   -0.0079 Mg     28  UNL28       0.0000
    548 MG        -52.3271   -0.0680   -0.0079 Mg     28  UNL28       0.0000
    549 MG        -59.4471   -0.0680   -0.0079 Mg     28  UNL28       0.0000
    550 MG        -66.5671   -0.0680   -0.0079 Mg     28  UNL28       0.0000
    551 MG         -2.6036   -0.0583   -0.0686 Mg     28  UNL28       0.0000
    552 MG         -9.7236   -0.0583   -0.0686 Mg     28  UNL28       0.0000
    553 MG        -16.8436   -0.0583   -0.0686 Mg     28  UNL28       0.0000
    554 MG        -23.9636   -0.0583   -0.0686 Mg     28  UNL28       0.0000
    555 MG        -31.0836   -0.0583   -0.0686 Mg     28  UNL28       0.0000
    556 MG        -38.2036   -0.0583   -0.0686 Mg     28  UNL28       0.0000
    557 MG        -45.3236   -0.0583   -0.0686 Mg     28  UNL28       0.0000
    558 MG        -52.4436   -0.0583   -0.0686 Mg     28  UNL28       0.0000
    559 MG        -59.5636   -0.0583   -0.0686 Mg     28  UNL28       0.0000
    560 MG        -66.6836   -0.0583   -0.0686 Mg     28  UNL28       0.0000
    561 MG         -2.5042   -0.0367    0.0744 Mg     17  UNL17       0.0000
    562 MG         -9.6242   -0.0367    0.0744 Mg     17  UNL17       0.0000
    563 MG        -16.7442   -0.0367    0.0744 Mg     17  UNL17       0.0000
    564 MG        -23.8642   -0.0367    0.0744 Mg     17  UNL17       0.0000
    565 MG        -30.9842   -0.0367    0.0744 Mg     17  UNL17       0.0000
    566 MG        -38.1042   -0.0367    0.0744 Mg     17  UNL17       0.0000
    567 MG        -45.2242   -0.0367    0.0744 Mg     17  UNL17       0.0000
    568 MG         -2.4906   -0.0477   -0.0540 Mg     18  UNL18       0.0000
    569 MG         -9.6106   -0.0477   -0.0540 Mg     18  UNL18       0.0000
    570 MG        -16.7306   -0.0477   -0.0540 Mg     18  UNL18       0.0000
    571 MG        -23.8506   -0.0477   -0.0540 Mg     18  UNL18       0.0000
    572 MG        -30.9706   -0.0477   -0.0540 Mg     18  UNL18       0.0000
    573 MG        -38.0906   -0.0477   -0.0540 Mg     18  UNL18       0.0000
    574 MG         -2.4938   -0.0407   -0.0630 Mg     19  UNL19       0.0000
    575 MG         -9.6138   -0.0407   -0.0630 Mg     19  UNL19       0.0000
    576 MG        -16.7338   -0.0407   -0.0630 Mg     19  UNL19       0.0000
    577 MG        -23.8538   -0.0407   -0.0630 Mg     19  UNL19       0.0000
    578 MG         -2.5403    0.0649   -0.0735 Mg     20  UNL20       0.0000
    579 MG         -9.6603    0.0649   -0.0735 Mg     20  UNL20       0.0000
    580 MG        -16.7803    0.0649   -0.0735 Mg     20  UNL20       0.0000
    581 MG         -2.4632   -0.0034    0.0250 Mg     21  UNL21       0.0000
    582 MG        -52.3442   -0.0367    0.0744 Mg     17  UNL17       0.0000
    583 MG        -59.4642   -0.0367    0.0744 Mg     17  UNL17       0.0000
    584 MG        -66.5842   -0.0367    0.0744 Mg     17  UNL17       0.0000
    585 MG        -45.2106   -0.0477   -0.0540 Mg     18  UNL18       0.0000
    586 MG        -52.3306   -0.0477   -0.0540 Mg     18  UNL18       0.0000
    587 MG        -59.4506   -0.0477   -0.0540 Mg     18  UNL18       0.0000
    588 MG        -66.5706   -0.0477   -0.0540 Mg     18  UNL18       0.0000
    589 MG        -30.9738   -0.0407   -0.0630 Mg     19  UNL19       0.0000
    590 MG        -38.0938   -0.0407   -0.0630 Mg     19  UNL19       0.0000
    591 MG        -45.2138   -0.0407   -0.0630 Mg     19  UNL19       0.0000
    592 MG        -52.3338   -0.0407   -0.0630 Mg     19  UNL19       0.0000
    593 MG        -59.4538   -0.0407   -0.0630 Mg     19  UNL19       0.0000
    594 MG        -66.5738   -0.0407   -0.0630 Mg     19  UNL19       0.0000
    595 MG        -23.9003    0.0649   -0.0735 Mg     20  UNL20       0.0000
    596 MG        -31.0203    0.0649   -0.0735 Mg     20  UNL20       0.0000
    597 MG        -38.1403    0.0649   -0.0735 Mg     20  UNL20       0.0000
    598 MG        -45.2603    0.0649   -0.0735 Mg     20  UNL20       0.0000
    599 MG        -52.3803    0.0649   -0.0735 Mg     20  UNL20       0.0000
    600 MG        -59.5003    0.0649   -0.0735 Mg     20  UNL20       0.0000
    601 MG        -66.6203    0.0649   -0.0735 Mg     20  UNL20       0.0000
    602 MG         -9.5832   -0.0034    0.0250 Mg     21  UNL21       0.0000
    603 MG        -16.7032   -0.0034    0.0250 Mg     21  UNL21       0.0000
    604 MG        -23.8232   -0.0034    0.0250 Mg     21  UNL21       0.0000
    605 MG        -30.9432   -0.0034    0.0250 Mg     21  UNL21       0.0000
    606 MG        -38.0632   -0.0034    0.0250 Mg     21  UNL21       0.0000
    607 MG        -45.1832   -0.0034    0.0250 Mg     21  UNL21       0.0000
    608 MG        -52.3032   -0.0034    0.0250 Mg     21  UNL21       0.0000
    609 MG        -59.4232   -0.0034    0.0250 Mg     21  UNL21       0.0000
    610 MG        -66.5432   -0.0034    0.0250 Mg     21  UNL21       0.0000
    611 MG         -2.5210    0.0712   -0.0584 Mg     22  UNL22       0.0000
    612 MG         -9.6410    0.0712   -0.0584 Mg     22  UNL22       0.0000
    613 MG        -16.7610    0.0712   -0.0584 Mg     22  UNL22       0.0000
    614 MG        -23.8810    0.0712   -0.0584 Mg     22  UNL22       0.0000
    615 MG        -31.0010    0.0712   -0.0584 Mg     22  UNL22       0.0000
    616 MG        -38.1210    0.0712   -0.0584 Mg     22  UNL22       0.0000
    617 MG        -45.2410    0.0712   -0.0584 Mg     22  UNL22       0.0000
    618 MG        -52.3610    0.0712   -0.0584 Mg     22  UNL22       0.0000
    619 MG        -59.4810    0.0712   -0.0584 Mg     22  UNL22       0.0000
    620 MG        -66.6010    0.0712   -0.0584 Mg     22  UNL22       0.0000
    621 MG         -2.4918   -0.0723   -0.0104 Mg     23  UNL23       0.0000
    622 MG         -9.6118   -0.0723   -0.0104 Mg     23  UNL23       0.0000
    623 MG        -16.7318   -0.0723   -0.0104 Mg     23  UNL23       0.0000
    624 MG        -23.8518   -0.0723   -0.0104 Mg     23  UNL23       0.0000
    625 MG        -30.9718   -0.0723   -0.0104 Mg     23  UNL23       0.0000
    626 MG        -38.0918   -0.0723   -0.0104 Mg     23  UNL23       0.0000
    627 MG        -45.2118   -0.0723   -0.0104 Mg     23  UNL23       0.0000
    628 MG        -52.3318   -0.0723   -0.0104 Mg     23  UNL23       0.0000
    629 MG        -59.4518   -0.0723   -0.0104 Mg     23  UNL23       0.0000
    630 MG        -66.5718   -0.0723   -0.0104 Mg     23  UNL23       0.0000
    631 MG         -2.5483   -0.0515    0.0849 Mg     24  UNL24       0.0000
    632 MG         -9.6683   -0.0515    0.0849 Mg     24  UNL24       0.0000
    633 MG        -16.7883   -0.0515    0.0849 Mg     24  UNL24       0.0000
    634 MG        -23.9083   -0.0515    0.0849 Mg     24  UNL24       0.0000
    635 MG        -31.0283   -0.0515    0.0849 Mg     24  UNL24       0.0000
    636 MG        -38.1483   -0.0515    0.0849 Mg     24  UNL24       0.0000
    637 MG        -45.2683   -0.0515    0.0849 Mg     24  UNL24       0.0000
    638 MG        -52.3883   -0.0515    0.0849 Mg     24  UNL24       0.0000
    639 MG        -59.5083   -0.0515    0.0849 Mg     24  UNL24       0.0000
    640 MG        -66.6283   -0.0515    0.0849 Mg     24  UNL24       0.0000
    641 H           3.5044    0.0667   -0.0598 H       1  UNL1        0.0000
    642 H           3.4138   -0.0755    0.0465 H       2  UNL2        0.0000
    643 H           3.4128   -0.0686    0.0554 H       3  UNL3        0.0000
    644 H           3.4256    0.0436   -0.0832 H       4  UNL4        0.0000
    645 H           3.4439    0.0869   -0.0468 H       5  UNL5        0.0000
    646 H           3.5235    0.0763   -0.0118 H       6  UNL6        0.0000
    647 H           3.5254   -0.0279   -0.0703 H       7  UNL7        0.0000
    648 H           3.4482    0.0305   -0.0945 H       8  UNL8        0.0000
    649 H           3.4694   -0.0956   -0.0277 H       9  UNL9        0.0000
    650 H           3.3717   -0.0010    0.0468 H      10  UNL10       0.0000
    651 H           3.5177   -0.0808    0.0120 H      11  UNL11       0.0000
    652 H           3.5403   -0.0256   -0.0539 H      12  UNL12       0.0000
    653 H           3.5399   -0.0404    0.0445 H      13  UNL13       0.0000
    654 H           3.4096    0.0563    0.0655 H      14  UNL14       0.0000
    655 H           3.4040    0.0501    0.0660 H      15  UNL15       0.0000
    656 H           3.4409   -0.0370    0.0909 H      16  UNL16       0.0000
    657 H           3.5158   -0.0367    0.0744 H      17  UNL17       0.0000
    658 H           3.5294   -0.0477   -0.0540 H      18  UNL18       0.0000
    659 H           3.5262   -0.0407   -0.0630 H      19  UNL19       0.0000
    660 H           3.4797    0.0649   -0.0735 H      20  UNL20       0.0000
    661 H           3.5568   -0.0034    0.0250 H      21  UNL21       0.0000
    662 H           3.4990    0.0712   -0.0584 H      22  UNL22       0.0000
    663 H           3.5282   -0.0723   -0.0104 H      23  UNL23       0.0000
    664 H           3.4717   -0.0515    0.0849 H      24  UNL24       0.0000
    665 H           3.5240   -0.0465    0.0611 H      25  UNL25       0.0000
    666 H           3.5379   -0.0354   -0.0518 H      26  UNL26       0.0000
    667 H           3.5077   -0.0474   -0.0740 H      27  UNL27       0.0000
    668 H           3.4469    0.0243   -0.0961 H      28  UNL28       0.0000
    669 H           3.4893    0.0847    0.0443 H      28  UNL28       0.0000
    670 H           3.3800   -0.0051    0.0598 H      28  UNL28       0.0000
    671 H           3.5329   -0.0680   -0.0079 H      28  UNL28       0.0000
    672 H           3.4164   -0.0583   -0.0686 H      28  UNL28       0.0000
    673 H         -68.3506   -0.0956   -0.0277 H       9  UNL9        0.0000
    674 H         -68.4483   -0.0010    0.0468 H      10  UNL10       0.0000
    675 H         -68.3023   -0.0808    0.0120 H      11  UNL11       0.0000
    676 H         -68.2797   -0.0256   -0.0539 H      12  UNL12       0.0000
    677 H         -68.2801   -0.0404    0.0445 H      13  UNL13       0.0000
    678 H         -68.4104    0.0563    0.0655 H      14  UNL14       0.0000
    679 H         -68.4160    0.0501    0.0660 H      15  UNL15       0.0000
    680 H         -68.3791   -0.0370    0.0909 H      16  UNL16       0.0000
    681 H         -68.3156    0.0667   -0.0598 H       1  UNL1        0.0000
    682 H         -68.4062   -0.0755    0.0465 H       2  UNL2        0.0000
    683 H         -68.4072   -0.0686    0.0554 H       3  UNL3        0.0000
    684 H         -68.3944    0.0436   -0.0832 H       4  UNL4        0.0000
    685 H         -68.3761    0.0869   -0.0468 H       5  UNL5        0.0000
    686 H         -68.2965    0.0763   -0.0118 H       6  UNL6        0.0000
    687 H         -68.2946   -0.0279   -0.0703 H       7  UNL7        0.0000
    688 H         -68.3718    0.0305   -0.0945 H       8  UNL8        0.0000
    689 H         -68.2960   -0.0465    0.0611 H      25  UNL25       0.0000
    690 H         -68.2821   -0.0354   -0.0518 H      26  UNL26       0.0000
    691 H         -68.3123   -0.0474   -0.0740 H      27  UNL27       0.0000
    692 H         -68.3731    0.0243   -0.0961 H      28  UNL28       0.0000
    693 H         -68.3307    0.0847    0.0443 H      28  UNL28       0.0000
    694 H         -68.4400   -0.0051    0.0598 H      28  UNL28       0.0000
    695 H         -68.2871   -0.0680   -0.0079 H      28  UNL28       0.0000
    696 H         -68.4036   -0.0583   -0.0686 H      28  UNL28       0.0000
    697 H         -68.3042   -0.0367    0.0744 H      17  UNL17       0.0000
    698 H         -68.2906   -0.0477   -0.0540 H      18  UNL18       0.0000
    699 H         -68.2938   -0.0407   -0.0630 H      19  UNL19       0.0000
    700 H         -68.3403    0.0649   -0.0735 H      20  UNL20       0.0000
    701 H         -68.2632   -0.0034    0.0250 H      21  UNL21       0.0000
    702 H         -68.3210    0.0712   -0.0584 H      22  UNL22       0.0000
    703 H         -68.2918   -0.0723   -0.0104 H      23  UNL23       0.0000
    704 H         -68.3483   -0.0515    0.0849 H      24  UNL24       0.0000
@<TRIPOS>BOND
     1     1   401    1
     2     2   402    1
     3     2   401    1
     4     3   402    1
     5     3   403    1
     6     4   403    1
     7     4   404    1
     8     5   405    1
     9     6   406    1
    10     6   405    1
    11     7   407    1
    12     8   408    1
    13     8   404    1
    14     9   408    1
    15     9   409    1
    16    10   409    1
    17    10   410    1
    18    11   410    1
    19    11   411    1
    20    12   411    1
    21    12   412    1
    22    13   412    1
    23    13   413    1
    24    14   406    1
    25    14   414    1
    26    15   414    1
    27    15   415    1
    28    16   415    1
    29    16   416    1
    30    17   416    1
    31    17   417    1
    32    18   417    1
    33    18   418    1
    34    19   418    1
    35    19   419    1
    36    20   419    1
    37    20   420    1
    38    21   407    1
    39    21   421    1
    40    22   421    1
    41    22   422    1
    42    23   422    1
    43    23   423    1
    44    24   423    1
    45    24   424    1
    46    25   424    1
    47    25   425    1
    48    26   425    1
    49    26   426    1
    50    27   426    1
    51    27   427    1
    52    28   428    1
    53    29   428    1
    54    29   429    1
    55    30   429    1
    56    30   430    1
    57    31   430    1
    58    31   431    1
    59    32   431    1
    60    32   432    1
    61    33   432    1
    62    33   433    1
    63    34   434    1
    64    35   434    1
    65    35   435    1
    66    36   435    1
    67    36   436    1
    68    37   436    1
    69    37   437    1
    70    38   437    1
    71    38   438    1
    72    39   439    1
    73    40   439    1
    74    40   440    1
    75    41   440    1
    76    41   441    1
    77    42   442    1
    78    43   442    1
    79    43   443    1
    80    44   444    1
    81    45   420    1
    82    45   445    1
    83    46   427    1
    84    46   446    1
    85    47   446    1
    86    47   473    1
    87    48   433    1
    88    48   447    1
    89    49   447    1
    90    49   448    1
    91    50   448    1
    92    50   449    1
    93    51   449    1
    94    51   474    1
    95    52   438    1
    96    52   450    1
    97    53   450    1
    98    53   451    1
    99    54   451    1
   100    54   452    1
   101    55   452    1
   102    55   453    1
   103    56   453    1
   104    56   475    1
   105    57   441    1
   106    57   454    1
   107    58   454    1
   108    58   455    1
   109    59   455    1
   110    59   456    1
   111    60   456    1
   112    60   457    1
   113    61   457    1
   114    61   458    1
   115    62   458    1
   116    62   459    1
   117    63   459    1
   118    63   476    1
   119    64   443    1
   120    64   460    1
   121    65   460    1
   122    65   461    1
   123    66   461    1
   124    66   462    1
   125    67   462    1
   126    67   463    1
   127    68   463    1
   128    68   464    1
   129    69   464    1
   130    69   465    1
   131    70   465    1
   132    70   466    1
   133    71   444    1
   134    71   467    1
   135    72   467    1
   136    72   468    1
   137    73   468    1
   138    73   469    1
   139    74   469    1
   140    74   470    1
   141    75   470    1
   142    75   471    1
   143    76   471    1
   144    76   472    1
   145    77   466    1
   146    77   477    1
   147    78   472    1
   148    78   478    1
   149    79   478    1
   150    79   479    1
   151    80   479    1
   152    80   480    1
   153   322    82    1
   154   322    83    1
   155   324    88    1
   156   324    84    1
   157   360   120    1
   158   360   121    1
   159   362   123    1
   160   362   122    1
   161   326    86    1
   162   326    94    1
   163   327    87    1
   164   327   101    1
   165   328    88    1
   166   328    89    1
   167   329    89    1
   168   329    90    1
   169   330    90    1
   170   330    91    1
   171   331    91    1
   172   331    92    1
   173   332    92    1
   174   332    93    1
   175   333    93    1
   176   334    94    1
   177   334    95    1
   178   335    95    1
   179   335    96    1
   180   336    96    1
   181   336    97    1
   182   337    97    1
   183   337    98    1
   184   338    98    1
   185   338    99    1
   186   339    99    1
   187   339   100    1
   188   340   125    1
   189   340   100    1
   190   341   101    1
   191   341   102    1
   192   342   102    1
   193   342   103    1
   194   343   103    1
   195   343   104    1
   196   344   104    1
   197   344   105    1
   198   345   105    1
   199   345   106    1
   200   346   106    1
   201   346   107    1
   202   347   107    1
   203   347   126    1
   204   348   108    1
   205   348   109    1
   206   349   109    1
   207   349   110    1
   208   350   110    1
   209   350   111    1
   210   351   111    1
   211   351   112    1
   212   352   112    1
   213   352   113    1
   214   353   113    1
   215   353   128    1
   216   354   114    1
   217   354   115    1
   218   355   115    1
   219   355   116    1
   220   356   116    1
   221   356   117    1
   222   357   117    1
   223   357   118    1
   224   358   118    1
   225   358   132    1
   226   359   119    1
   227   359   120    1
   228   361   121    1
   229   361   137    1
   230   363   123    1
   231   363   144    1
   232   364   124    1
   233   364   151    1
   234   365   125    1
   235   366   126    1
   236   366   127    1
   237   367   127    1
   238   368   128    1
   239   368   129    1
   240   369   129    1
   241   369   130    1
   242   370   130    1
   243   370   131    1
   244   371   131    1
   245   372   132    1
   246   372   133    1
   247   373   133    1
   248   373   134    1
   249   374   134    1
   250   374   135    1
   251   375   135    1
   252   375   136    1
   253   376   136    1
   254   377   137    1
   255   377   138    1
   256   378   138    1
   257   378   139    1
   258   379   139    1
   259   379   140    1
   260   380   140    1
   261   380   141    1
   262   381   141    1
   263   381   142    1
   264   382   142    1
   265   382   143    1
   266   383   143    1
   267   384   144    1
   268   384   145    1
   269   385   145    1
   270   385   146    1
   271   386   146    1
   272   386   147    1
   273   387   147    1
   274   387   148    1
   275   388   148    1
   276   388   149    1
   277   389   149    1
   278   389   150    1
   279   390   150    1
   280   390   157    1
   281   391   151    1
   282   391   152    1
   283   392   152    1
   284   392   153    1
   285   393   153    1
   286   393   154    1
   287   394   154    1
   288   394   155    1
   289   395   155    1
   290   395   156    1
   291   396   156    1
   292   396   158    1
   293   397   157    1
   294   398   158    1
   295   398   159    1
   296   399   159    1
   297   399   160    1
   298   400   160    1
   299   325    86    1
   300   325    85    1
   301   321    82    1
   302   321    81    1
   303   323    83    1
   304   323    84    1
   305   164   564    1
   306   164   563    1
   307   165   565    1
   308   165   564    1
   309   240   640    1
   310   240   639    1
   311   239   638    1
   312   239   639    1
   313   238   638    1
   314   238   637    1
   315   237   637    1
   316   237   636    1
   317   236   636    1
   318   236   635    1
   319   235   635    1
   320   235   634    1
   321   234   634    1
   322   234   633    1
   323   233   633    1
   324   233   632    1
   325   232   632    1
   326   232   631    1
   327   231   631    1
   328   230   630    1
   329   230   629    1
   330   229   629    1
   331   229   628    1
   332   228   628    1
   333   228   627    1
   334   227   627    1
   335   227   626    1
   336   226   626    1
   337   226   625    1
   338   225   625    1
   339   225   624    1
   340   224   624    1
   341   224   623    1
   342   223   623    1
   343   223   622    1
   344   222   622    1
   345   222   621    1
   346   221   621    1
   347   220   620    1
   348   220   619    1
   349   219   619    1
   350   219   618    1
   351   218   618    1
   352   218   617    1
   353   217   617    1
   354   217   616    1
   355   216   616    1
   356   216   615    1
   357   215   615    1
   358   215   614    1
   359   214   614    1
   360   214   613    1
   361   213   613    1
   362   213   612    1
   363   212   612    1
   364   212   611    1
   365   211   611    1
   366   210   610    1
   367   210   609    1
   368   209   609    1
   369   209   608    1
   370   208   608    1
   371   208   607    1
   372   207   607    1
   373   207   606    1
   374   206   606    1
   375   206   605    1
   376   205   605    1
   377   205   604    1
   378   204   604    1
   379   204   603    1
   380   161   561    1
   381   162   562    1
   382   162   561    1
   383   203   603    1
   384   203   602    1
   385   202   602    1
   386   202   581    1
   387   201   601    1
   388   201   600    1
   389   200   600    1
   390   200   599    1
   391   199   599    1
   392   199   598    1
   393   198   598    1
   394   198   597    1
   395   197   597    1
   396   197   596    1
   397   196   596    1
   398   196   595    1
   399   195   595    1
   400   195   580    1
   401   194   594    1
   402   194   593    1
   403   193   593    1
   404   193   592    1
   405   192   592    1
   406   192   591    1
   407   191   591    1
   408   191   590    1
   409   190   590    1
   410   190   589    1
   411   189   589    1
   412   189   577    1
   413   188   588    1
   414   188   587    1
   415   187   587    1
   416   187   586    1
   417   186   586    1
   418   186   585    1
   419   185   585    1
   420   185   573    1
   421   184   584    1
   422   184   583    1
   423   183   583    1
   424   183   582    1
   425   182   582    1
   426   182   567    1
   427   181   581    1
   428   180   580    1
   429   180   579    1
   430   179   579    1
   431   179   578    1
   432   178   578    1
   433   177   577    1
   434   177   576    1
   435   176   576    1
   436   176   575    1
   437   175   575    1
   438   175   574    1
   439   174   574    1
   440   173   573    1
   441   173   572    1
   442   172   572    1
   443   172   571    1
   444   171   571    1
   445   171   570    1
   446   170   570    1
   447   170   569    1
   448   169   569    1
   449   169   568    1
   450   168   568    1
   451   167   567    1
   452   167   566    1
   453   166   566    1
   454   166   565    1
   455   163   562    1
   456   163   563    1
   457   484   245    1
   458   484   244    1
   459   481   242    1
   460   481   241    1
   461   487   247    1
   462   487   262    1
   463   486   246    1
   464   486   247    1
   465   488   248    1
   466   488   249    1
   467   489   249    1
   468   489   250    1
   469   490   250    1
   470   490   251    1
   471   491   251    1
   472   491   252    1
   473   492   252    1
   474   492   253    1
   475   493   253    1
   476   493   265    1
   477   494   254    1
   478   494   255    1
   479   495   255    1
   480   495   256    1
   481   496   256    1
   482   496   257    1
   483   497   257    1
   484   497   269    1
   485   498   258    1
   486   498   259    1
   487   499   259    1
   488   499   260    1
   489   500   260    1
   490   500   275    1
   491   501   261    1
   492   501   282    1
   493   502   262    1
   494   502   263    1
   495   503   263    1
   496   503   264    1
   497   504   264    1
   498   505   265    1
   499   505   266    1
   500   506   266    1
   501   506   267    1
   502   507   267    1
   503   507   268    1
   504   508   268    1
   505   509   269    1
   506   509   270    1
   507   510   270    1
   508   510   271    1
   509   511   271    1
   510   511   272    1
   511   512   272    1
   512   512   273    1
   513   513   273    1
   514   513   274    1
   515   514   274    1
   516   515   275    1
   517   515   276    1
   518   516   276    1
   519   516   277    1
   520   517   277    1
   521   517   278    1
   522   518   278    1
   523   518   279    1
   524   519   279    1
   525   519   280    1
   526   520   280    1
   527   520   281    1
   528   521   281    1
   529   522   282    1
   530   522   283    1
   531   483   244    1
   532   483   243    1
   533   523   283    1
   534   523   284    1
   535   482   242    1
   536   482   243    1
   537   524   284    1
   538   524   285    1
   539   525   285    1
   540   525   286    1
   541   526   286    1
   542   526   287    1
   543   527   287    1
   544   527   288    1
   545   528   288    1
   546   528   289    1
   547   529   289    1
   548   529   290    1
   549   530   290    1
   550   531   291    1
   551   531   292    1
   552   532   292    1
   553   532   293    1
   554   533   293    1
   555   533   294    1
   556   534   294    1
   557   534   295    1
   558   535   295    1
   559   535   296    1
   560   536   296    1
   561   536   297    1
   562   537   297    1
   563   537   298    1
   564   538   298    1
   565   538   299    1
   566   539   299    1
   567   539   300    1
   568   540   300    1
   569   541   301    1
   570   541   302    1
   571   542   302    1
   572   542   303    1
   573   543   303    1
   574   543   304    1
   575   544   304    1
   576   544   305    1
   577   545   305    1
   578   545   306    1
   579   546   306    1
   580   546   307    1
   581   547   307    1
   582   547   308    1
   583   548   308    1
   584   548   309    1
   585   549   309    1
   586   549   310    1
   587   550   310    1
   588   551   311    1
   589   551   312    1
   590   552   312    1
   591   552   313    1
   592   553   313    1
   593   553   314    1
   594   554   314    1
   595   554   315    1
   596   555   315    1
   597   555   316    1
   598   556   316    1
   599   556   317    1
   600   557   317    1
   601   557   318    1
   602   558   318    1
   603   558   319    1
   604   559   319    1
   605   559   320    1
   606   560   320    1
   607   485   245    1
   608   485   246    1
   609     1   641    1
   610     5   642    1
   611     7   643    1
   612    28   644    1
   613    34   645    1
   614    39   646    1
   615    42   647    1
   616    44   648    1
   617    81   649    1
   618    85   650    1
   619    87   651    1
   620   108   652    1
   621   114   653    1
   622   119   654    1
   623   122   655    1
   624   124   656    1
   625   161   657    1
   626   168   658    1
   627   174   659    1
   628   178   660    1
   629   181   661    1
   630   211   662    1
   631   221   663    1
   632   231   664    1
   633   241   665    1
   634   248   666    1
   635   254   667    1
   636   258   668    1
   637   261   669    1
   638   291   670    1
   639   301   671    1
   640   311   672    1
   641   333   673    1
   642   365   674    1
   643   367   675    1
   644   371   676    1
   645   376   677    1
   646   383   678    1
   647   397   679    1
   648   400   680    1
   649   413   681    1
   650   445   682    1
   651   473   683    1
   652   474   684    1
   653   475   685    1
   654   476   686    1
   655   477   687    1
   656   480   688    1
   657   504   689    1
   658   508   690    1
   659   514   691    1
   660   521   692    1
   661   530   693    1
   662   540   694    1
   663   550   695    1
   664   560   696    1
   665   584   697    1
   666   588   698    1
   667   594   699    1
   668   601   700    1
   669   610   701    1
   670   620   702    1
   671   630   703    1
   672   640   704    1
